Version 4
SHEET 1 1168 752
WIRE 0 48 -32 48
WIRE 224 48 0 48
WIRE 496 48 304 48
WIRE 688 48 496 48
WIRE 896 48 752 48
WIRE 1008 48 896 48
WIRE 1056 48 1008 48
WIRE 1008 112 1008 48
WIRE 0 128 0 48
WIRE 496 128 496 48
WIRE 896 160 896 48
WIRE 480 240 480 224
WIRE 480 240 304 240
WIRE 304 272 304 240
WIRE 0 400 0 208
WIRE 304 400 304 352
WIRE 304 400 0 400
WIRE 512 400 512 224
WIRE 512 400 304 400
WIRE 896 400 896 224
WIRE 896 400 512 400
WIRE 1008 400 1008 192
WIRE 1008 400 896 400
WIRE 512 448 512 400
FLAG 512 448 0
FLAG 1056 48 Vout
IOPIN 1056 48 Out
FLAG -32 48 Vin
IOPIN -32 48 In
SYMBOL voltage 0 112 R0
WINDOW 123 0 0 Left 0
WINDOW 39 0 0 Left 0
SYMATTR InstName V1
SYMATTR Value 48
SYMBOL ind 208 64 R270
WINDOW 0 32 56 VTop 2
WINDOW 3 5 56 VBottom 2
SYMATTR InstName L1
SYMATTR Value 35.6µ
SYMATTR SpiceLine Rser=0.009926
SYMBOL AutoGenerated\\DMT10H015LFG 496 176 M90
SYMATTR InstName U1
SYMBOL voltage 304 256 R0
WINDOW 123 0 0 Left 0
WINDOW 39 0 0 Left 0
SYMATTR InstName V2
SYMATTR Value PULSE(0 12 0 0 0 0.18u 1u)
SYMBOL cap 880 160 R0
SYMATTR InstName C1
SYMATTR Value 67µ
SYMBOL res 992 96 R0
SYMATTR InstName R1
SYMATTR Value 15
SYMBOL AutoGenerated\\SR56F-AU 720 48 R0
SYMATTR InstName U2
SYMBOL res 560 688 R90
WINDOW 0 0 56 VBottom 2
WINDOW 3 32 56 VTop 2
SYMATTR InstName R2
SYMATTR Value 1
TEXT -32 472 Left 2 !.tran 5m
