Version 4
SHEET 1 2320 752
WIRE 208 -416 96 -416
WIRE 400 -416 288 -416
WIRE 400 -320 400 -416
WIRE 96 -240 96 -416
WIRE 272 -240 96 -240
WIRE 400 -240 400 -320
WIRE 400 -240 352 -240
WIRE 96 -160 96 -240
WIRE 128 -160 96 -160
WIRE 400 -160 208 -160
WIRE 400 -112 400 -160
WIRE 96 -32 96 -160
WIRE 224 -32 96 -32
WIRE 400 -32 400 -112
WIRE 400 -32 304 -32
WIRE 0 48 -32 48
WIRE 96 48 96 -32
WIRE 96 48 0 48
WIRE 208 48 96 48
WIRE 496 48 288 48
WIRE 688 48 496 48
WIRE 896 48 752 48
WIRE 1008 48 896 48
WIRE 1056 48 1008 48
WIRE 1008 112 1008 48
WIRE 0 128 0 48
WIRE 496 128 496 48
WIRE 896 160 896 48
WIRE 480 240 480 224
WIRE 480 240 304 240
WIRE 304 272 304 240
WIRE 0 400 0 208
WIRE 304 400 304 352
WIRE 304 400 0 400
WIRE 512 400 512 224
WIRE 512 400 304 400
WIRE 896 400 896 224
WIRE 896 400 512 400
WIRE 1008 400 1008 192
WIRE 1008 400 896 400
WIRE 512 448 512 400
FLAG 512 448 0
FLAG 1056 48 Vout
IOPIN 1056 48 Out
FLAG -32 48 Vin
IOPIN -32 48 In
FLAG 400 -320 nPhi
FLAG 400 -112 Ld
SYMBOL voltage 0 112 R0
WINDOW 123 0 0 Left 0
WINDOW 39 0 0 Left 0
SYMATTR InstName V1
SYMATTR Value 48
SYMBOL AutoGenerated\\DMT10H015LFG 496 176 M90
SYMATTR InstName U1
SYMBOL voltage 304 256 R0
WINDOW 123 0 0 Left 0
WINDOW 39 0 0 Left 0
SYMATTR InstName V2
SYMATTR Value PULSE(0 12 0 0 0 0.18u 1u)
SYMBOL cap 880 160 R0
SYMATTR InstName C1
SYMATTR Value 60µ
SYMBOL AutoGenerated\\SR56F-AU 720 48 R0
SYMATTR InstName U2
SYMBOL res 560 688 R90
WINDOW 0 0 56 VBottom 2
WINDOW 3 32 56 VTop 2
SYMATTR InstName R2
SYMATTR Value 1
SYMBOL ind2 304 32 R90
WINDOW 0 4 56 VBottom 2
WINDOW 3 32 56 VTop 2
SYMATTR InstName L1
SYMATTR Value {14.76u*Tanh(2.4154*X)}
SYMATTR Type ind
SYMBOL bv 304 -416 R90
WINDOW 0 -32 56 VBottom 2
WINDOW 3 32 56 VTop 2
SYMATTR InstName B1
SYMATTR Value V={14.76u*Tanh(2.4154*I(L1))}
SYMBOL bv 224 -160 R90
WINDOW 0 -32 56 VBottom 2
WINDOW 3 32 56 VTop 2
SYMATTR InstName B2
SYMATTR Value V=DDT(V(nPhi))
SYMBOL res 368 -256 R90
WINDOW 0 -15 46 VBottom 2
WINDOW 3 32 56 VTop 2
SYMATTR InstName R3
SYMATTR Value 1k
SYMBOL res 320 -48 R90
WINDOW 0 0 56 VBottom 2
WINDOW 3 32 56 VTop 2
SYMATTR InstName R4
SYMATTR Value 1k
SYMBOL current 1008 112 R0
WINDOW 0 24 80 Left 2
WINDOW 3 24 0 Left 2
WINDOW 123 0 0 Left 0
WINDOW 39 0 0 Left 0
SYMATTR InstName Load1
SYMATTR Value 10
TEXT -32 472 Left 2 !.tran 2.5m
